Circuit: * S:\My Documents\DavidHouston\FPSi Senior Project\Amplifier_Design\amplifier_setup.asc

Direct Newton iteration for .op point succeeded.

Date: Thu Aug 06 21:42:47 2015
Total elapsed time: 1.312 seconds.

tnom = 27
temp = 27
method = modified trap
totiter = 44278
traniter = 44268
tranpoints = 19281
accept = 15228
rejected = 4053
matrix size = 26
fillins = 8
solver = Normal
Matrix Compiler1: 2.35 KB object code size  1.4/1.1/[0.5]
Matrix Compiler2: 2.43 KB object code size  0.7/0.9/[0.4]


